examples/national_grid/ngt-2009_10sop.m
function mpc = ngt-2009_10sop

%% MATPOWER Case Format : Version 2
mpc.version = '2';

%%%%-----  Power Flow Data  -----%%%%
%%%% system MVA base
mpc.baseMVA = 100;

%%%% bus data
%%	bus_i	type	Pd	Qd	Gs	Bs	area	Vm	Va	baseKV	zone	Vmax	Vmin	lam_P	lam_Q	mu_Vmax	mu_Vmin
mpc.bus = [
	1	1	1447.39	422.156	0	-200	1	1	0	400	1	1.1	0.9	0.0000	0.0000	0.0000	0.0000;
	2	1	0	0	0	0	1	1	0	400	1	1.1	0.9	0.0000	0.0000	0.0000	0.0000;
	3	1	0	0	0	0	1	1	0	400	1	1.1	0.9	0.0000	0.0000	0.0000	0.0000;
	4	1	388.74	153.64	0	0	1	1	0	400	1	1.1	0.9	0.0000	0.0000	0.0000	0.0000;
	5	1	0	0	0	0	1	1	0	400	1	1.1	0.9	0.0000	0.0000	0.0000	0.0000;
	6	1	0	0	0	0	1	1	0	400	1	1.1	0.9	0.0000	0.0000	0.0000	0.0000;
	7	1	0	0	0	0	1	1	0	400	1	1.1	0.9	0.0000	0.0000	0.0000	0.0000;
	8	1	0	0	0	0	1	1	0	400	1	1.1	0.9	0.0000	0.0000	0.0000	0.0000;
	9	1	852.864	248.752	0	0	1	1	0	400	1	1.1	0.9	0.0000	0.0000	0.0000	0.0000;
	10	1	0	0	0	0	1	1	0	400	1	1.1	0.9	0.0000	0.0000	0.0000	0.0000;
	11	1	0	0	0	0	1	1	0	400	1	1.1	0.9	0.0000	0.0000	0.0000	0.0000;
	12	1	811.408	276.49	0	450	1	1	0	400	1	1.1	0.9	0.0000	0.0000	0.0000	0.0000;
	13	1	0	0	0	0	1	1	0	400	1	1.1	0.9	0.0000	0.0000	0.0000	0.0000;
	14	1	180	0	0	0	1	1	0	400	1	1.1	0.9	0.0000	0.0000	0.0000	0.0000;
	15	2	0	0	0	0	1	1	0	400	1	1.1	0.9	0.0000	0.0000	0.0000	0.0000;
	16	2	0	0	0	0	1	1	0	400	1	1.1	0.9	0.0000	0.0000	0.0000	0.0000;
	17	2	0	0	0	0	1	1	0	400	1	1.1	0.9	0.0000	0.0000	0.0000	0.0000;
	18	2	0	0	0	0	1	1	0	400	1	1.1	0.9	0.0000	0.0000	0.0000	0.0000;
	19	2	0	0	0	0	1	1	0	400	1	1.1	0.9	0.0000	0.0000	0.0000	0.0000;
	20	1	69.504	20.272	0	0	1	1	0	400	1	1.1	0.9	0.0000	0.0000	0.0000	0.0000;
	21	2	0	0	0	225	1	1	0	400	1	1.1	0.9	0.0000	0.0000	0.0000	0.0000;
	22	1	0	0	0	0	1	1	0	400	1	1.1	0.9	0.0000	0.0000	0.0000	0.0000;
	23	1	1583.53	600.22	0	900	1	1	0	400	1	1.1	0.9	0.0000	0.0000	0.0000	0.0000;
	24	1	1431.49	290.676	0	300	1	1	0	400	1	1.1	0.9	0.0000	0.0000	0.0000	0.0000;
	25	1	0	0	0	0	1	1	0	400	1	1.1	0.9	0.0000	0.0000	0.0000	0.0000;
	26	1	0	0	0	0	1	1	0	400	1	1.1	0.9	0.0000	0.0000	0.0000	0.0000;
	27	1	0	0	0	0	1	1	0	400	1	1.1	0.9	0.0000	0.0000	0.0000	0.0000;
	28	1	0	0	0	0	1	1	0	400	1	1.1	0.9	0.0000	0.0000	0.0000	0.0000;
	29	1	0.57	0.18735	0	0	1	1	0	400	1	1.1	0.9	0.0000	0.0000	0.0000	0.0000;
	30	1	0	0	0	0	1	1	0	400	1	1.1	0.9	0.0000	0.0000	0.0000	0.0000;
	31	1	412.378	149.673	0	0	1	1	0	400	1	1.1	0.9	0.0000	0.0000	0.0000	0.0000;
	32	1	1853.76	540.68	0	225	1	1	0	400	1	1.1	0.9	0.0000	0.0000	0.0000	0.0000;
	33	1	623	0	0	360	1	1	0	400	1	1.1	0.9	0.0000	0.0000	0.0000	0.0000;
	34	1	0	0	0	0	1	1	0	400	1	1.1	0.9	0.0000	0.0000	0.0000	0.0000;
	35	1	1013.93	333.264	0	450	1	1	0	400	1	1.1	0.9	0.0000	0.0000	0.0000	0.0000;
	36	1	0	0	0	0	1	1	0	400	1	1.1	0.9	0.0000	0.0000	0.0000	0.0000;
	37	1	1312.99	382.956	0	0	1	1	0	400	1	1.1	0.9	0.0000	0.0000	0.0000	0.0000;
	38	2	0	0	0	0	1	1	0	400	1	1.1	0.9	0.0000	0.0000	0.0000	0.0000;
	39	1	495.5	0	0	0	1	1	0	400	1	1.1	0.9	0.0000	0.0000	0.0000	0.0000;
	40	1	0	0	0	0	1	1	0	400	1	1.1	0.9	0.0000	0.0000	0.0000	0.0000;
	41	1	539.98	109.648	0	0	1	1	0	400	1	1.1	0.9	0.0000	0.0000	0.0000	0.0000;
	42	1	0	0	0	0	1	1	0	400	1	1.1	0.9	0.0000	0.0000	0.0000	0.0000;
	43	1	0	0	0	0	1	1	0	400	1	1.1	0.9	0.0000	0.0000	0.0000	0.0000;
	44	1	439.119	110.054	0	0	1	1	0	400	1	1.1	0.9	0.0000	0.0000	0.0000	0.0000;
	45	1	0	0	0	0	1	1	0	400	1	1.1	0.9	0.0000	0.0000	0.0000	0.0000;
	46	2	0	0	0	0	1	1	0	400	1	1.1	0.9	0.0000	0.0000	0.0000	0.0000;
	47	2	0	0	0	0	1	1	0	400	1	1.1	0.9	0.0000	0.0000	0.0000	0.0000;
	48	1	0	0	0	0	1	1	0	400	1	1.1	0.9	0.0000	0.0000	0.0000	0.0000;
	49	2	1279.06	464.236	0	0	1	1	0	400	1	1.1	0.9	0.0000	0.0000	0.0000	0.0000;
	50	1	0	0	0	0	1	1	0	400	1	1.1	0.9	0.0000	0.0000	0.0000	0.0000;
	51	2	0	0	0	0	1	1	0	400	1	1.1	0.9	0.0000	0.0000	0.0000	0.0000;
	52	1	452.544	131.992	0	0	1	1	0	400	1	1.1	0.9	0.0000	0.0000	0.0000	0.0000;
	53	2	0	0	0	0	1	1	0	400	1	1.1	0.9	0.0000	0.0000	0.0000	0.0000;
	54	2	344.751	136.254	0	225	1	1	0	400	1	1.1	0.9	0.0000	0.0000	0.0000	0.0000;
	55	1	595.104	173.572	0	0	1	1	0	400	1	1.1	0.9	0.0000	0.0000	0.0000	0.0000;
	56	1	0	0	0	0	1	1	0	400	1	1.1	0.9	0.0000	0.0000	0.0000	0.0000;
	57	1	198.93	65.3851	0	225	1	1	0	400	1	1.1	0.9	0.0000	0.0000	0.0000	0.0000;
	58	2	552.96	161.28	0	0	1	1	0	400	1	1.1	0.9	0.0000	0.0000	0.0000	0.0000;
	59	1	0	0	0	0	1	1	0	400	1	1.1	0.9	0.0000	0.0000	0.0000	0.0000;
	60	1	639.189	252.624	0	0	1	1	0	400	1	1.1	0.9	0.0000	0.0000	0.0000	0.0000;
	61	1	0	0	0	0	1	1	0	400	1	1.1	0.9	0.0000	0.0000	0.0000	0.0000;
	62	1	1519.1	443.072	0	0	1	1	0	400	1	1.1	0.9	0.0000	0.0000	0.0000	0.0000;
	63	1	0	0	0	0	1	1	0	400	1	1.1	0.9	0.0000	0.0000	0.0000	0.0000;
	64	2	447.36	130.48	0	0	1	1	0	400	1	1.1	0.9	0.0000	0.0000	0.0000	0.0000;
	65	2	592.85	588.008	0	0	1	1	0	400	1	1.1	0.9	0.0000	0.0000	0.0000	0.0000;
	66	1	253.44	36.1132	0	0	1	1	0	400	1	1.1	0.9	0.0000	0.0000	0.0000	0.0000;
	67	1	0	0	0	0	1	1	0	400	1	1.1	0.9	0.0000	0.0000	0.0000	0.0000;
	68	1	0	0	0	0	1	1	0	400	1	1.1	0.9	0.0000	0.0000	0.0000	0.0000;
	69	1	898.176	261.968	0	150	1	1	0	400	1	1.1	0.9	0.0000	0.0000	0.0000	0.0000;
	70	1	1029.6	300.3	0	225	1	1	0	400	1	1.1	0.9	0.0000	0.0000	0.0000	0.0000;
	71	1	0	0	0	0	1	1	0	400	1	1.1	0.9	0.0000	0.0000	0.0000	0.0000;
	72	1	0	0	0	0	1	1	0	400	1	1.1	0.9	0.0000	0.0000	0.0000	0.0000;
	73	1	0	0	0	0	1	1	0	400	1	1.1	0.9	0.0000	0.0000	0.0000	0.0000;
	74	2	617.672	333.52	0	0	1	1	0	400	1	1.1	0.9	0.0000	0.0000	0.0000	0.0000;
	75	1	1291.78	376.768	0	175	1	1	0	400	1	1.1	0.9	0.0000	0.0000	0.0000	0.0000;
	76	1	362.4	105.7	0	0	1	1	0	400	1	1.1	0.9	0.0000	0.0000	0.0000	0.0000;
	77	1	334.62	47.6808	0	-200	1	1	0	400	1	1.1	0.9	0.0000	0.0000	0.0000	0.0000;
	78	1	0	0	0	0	1	1	0	400	1	1.1	0.9	0.0000	0.0000	0.0000	0.0000;
	79	2	508.535	167.147	0	-185	1	1	0	400	1	1.1	0.9	0.0000	0.0000	0.0000	0.0000;
	80	1	0	0	0	0	1	1	0	400	1	1.1	0.9	0.0000	0.0000	0.0000	0.0000;
	81	1	0	0	0	0	1	1	0	400	1	1.1	0.9	0.0000	0.0000	0.0000	0.0000;
	82	1	0	0	0	-200	1	1	0	400	1	1.1	0.9	0.0000	0.0000	0.0000	0.0000;
	83	2	7.12	3.64768	0	0	1	1	0	400	1	1.1	0.9	0.0000	0.0000	0.0000	0.0000;
	84	1	1484.26	432.908	0	-200	1	1	0	400	1	1.1	0.9	0.0000	0.0000	0.0000	0.0000;
	85	1	938.95	285.35	0	-200	1	1	0	400	1	1.1	0.9	0.0000	0.0000	0.0000	0.0000;
	86	2	0	0	0	0	1	1	0	400	1	1.1	0.9	0.0000	0.0000	0.0000	0.0000;
	87	2	0	0	0	0	1	1	0	400	1	1.1	0.9	0.0000	0.0000	0.0000	0.0000;
	88	1	14	0	0	0	1	1	0	400	1	1.1	0.9	0.0000	0.0000	0.0000	0.0000;
	89	1	926.03	277.594	0	0	1	1	0	400	1	1.1	0.9	0.0000	0.0000	0.0000	0.0000;
	90	1	0	0	0	0	1	1	0	400	1	1.1	0.9	0.0000	0.0000	0.0000	0.0000;
	91	1	0	0	0	225	1	1	0	400	1	1.1	0.9	0.0000	0.0000	0.0000	0.0000;
	92	2	0	0	0	0	1	1	0	400	1	1.1	0.9	0.0000	0.0000	0.0000	0.0000;
	93	2	113.68	23.0837	0	36	1	1	0	400	1	1.1	0.9	0.0000	0.0000	0.0000	0.0000;
	94	2	651.54	216.471	0	0	1	1	0	400	1	1.1	0.9	0.0000	0.0000	0.0000	0.0000;
	95	1	0	0	0	0	1	1	0	400	1	1.1	0.9	0.0000	0.0000	0.0000	0.0000;
	96	1	442.714	120.486	0	0	1	1	0	400	1	1.1	0.9	0.0000	0.0000	0.0000	0.0000;
	97	1	841.572	210.918	0	0	1	1	0	400	1	1.1	0.9	0.0000	0.0000	0.0000	0.0000;
	98	1	0	0	0	0	1	1	0	400	1	1.1	0.9	0.0000	0.0000	0.0000	0.0000;
	99	1	364.8	106.4	0	0	1	1	0	400	1	1.1	0.9	0.0000	0.0000	0.0000	0.0000;
	100	1	523	0	0	0	1	1	0	400	1	1.1	0.9	0.0000	0.0000	0.0000	0.0000;
	101	2	0	0	0	0	1	1	0	400	1	1.1	0.9	0.0000	0.0000	0.0000	0.0000;
	102	2	0	0	0	-300	1	1	0	400	1	1.1	0.9	0.0000	0.0000	0.0000	0.0000;
	103	2	131.736	71.1036	0	0	1	1	0	400	1	1.1	0.9	0.0000	0.0000	0.0000	0.0000;
	104	1	0	0	0	0	1	1	0	400	1	1.1	0.9	0.0000	0.0000	0.0000	0.0000;
	105	1	0	0	0	0	1	1	0	400	1	1.1	0.9	0.0000	0.0000	0.0000	0.0000;
	106	1	0	0	0	0	1	1	0	400	1	1.1	0.9	0.0000	0.0000	0.0000	0.0000;
	107	1	833.902	363.386	0	600	1	1	0	400	1	1.1	0.9	0.0000	0.0000	0.0000	0.0000;
	108	2	551.072	176.896	0	0	1	1	0	400	1	1.1	0.9	0.0000	0.0000	0.0000	0.0000;
	109	1	0	0	0	0	1	1	0	400	1	1.1	0.9	0.0000	0.0000	0.0000	0.0000;
	110	2	0	0	0	0	1	1	0	400	1	1.1	0.9	0.0000	0.0000	0.0000	0.0000;
	111	2	138.15	69.24	0	0	1	1	0	400	1	1.1	0.9	0.0000	0.0000	0.0000	0.0000;
	112	1	513.024	149.632	0	0	1	1	0	400	1	1.1	0.9	0.0000	0.0000	0.0000	0.0000;
	113	2	0	0	0	0	1	1	0	400	1	1.1	0.9	0.0000	0.0000	0.0000	0.0000;
	114	1	0	0	0	0	1	1	0	400	1	1.1	0.9	0.0000	0.0000	0.0000	0.0000;
	115	1	128.8	54.8686	0	0	1	1	0	400	1	1.1	0.9	0.0000	0.0000	0.0000	0.0000;
	116	1	0	0	0	450	1	1	0	400	1	1.1	0.9	0.0000	0.0000	0.0000	0.0000;
	117	1	0	0	0	0	1	1	0	400	1	1.1	0.9	0.0000	0.0000	0.0000	0.0000;
	118	1	608.22	240.384	0	225	1	1	0	400	1	1.1	0.9	0.0000	0.0000	0.0000	0.0000;
	119	2	-282.384	272.177	0	0	1	1	0	400	1	1.1	0.9	0.0000	0.0000	0.0000	0.0000;
	120	1	-420	0	0	0	1	1	0	400	1	1.1	0.9	0.0000	0.0000	0.0000	0.0000;
	121	1	0	0	0	0	1	1	0	400	1	1.1	0.9	0.0000	0.0000	0.0000	0.0000;
	122	1	0	0	0	0	1	1	0	400	1	1.1	0.9	0.0000	0.0000	0.0000	0.0000;
	123	1	0	0	0	600	1	1	0	400	1	1.1	0.9	0.0000	0.0000	0.0000	0.0000;
	124	1	0	0	0	0	1	1	0	400	1	1.1	0.9	0.0000	0.0000	0.0000	0.0000;
	125	1	0	0	0	0	1	1	0	400	1	1.1	0.9	0.0000	0.0000	0.0000	0.0000;
	126	1	685.887	171.899	0	0	1	1	0	400	1	1.1	0.9	0.0000	0.0000	0.0000	0.0000;
	127	1	0	0	0	0	1	1	0	400	1	1.1	0.9	0.0000	0.0000	0.0000	0.0000;
	128	1	1250.58	411.046	0	0	1	1	0	400	1	1.1	0.9	0.0000	0.0000	0.0000	0.0000;
	129	1	30	0	0	0	1	1	0	400	1	1.1	0.9	0.0000	0.0000	0.0000	0.0000;
	130	1	0	0	0	0	1	1	0	400	1	1.1	0.9	0.0000	0.0000	0.0000	0.0000;
	131	1	0	0	0	0	1	1	0	400	1	1.1	0.9	0.0000	0.0000	0.0000	0.0000;
	132	1	1676.51	596.006	0	10.2	1	1	0	400	1	1.1	0.9	0.0000	0.0000	0.0000	0.0000;
	133	1	0	0	0	0	1	1	0	400	1	1.1	0.9	0.0000	0.0000	0.0000	0.0000;
	134	1	0	0	0	0	1	1	0	400	1	1.1	0.9	0.0000	0.0000	0.0000	0.0000;
	135	1	58.41	8.32297	0	0	1	1	0	400	1	1.1	0.9	0.0000	0.0000	0.0000	0.0000;
	136	1	0	0	0	0	1	1	0	400	1	1.1	0.9	0.0000	0.0000	0.0000	0.0000;
	137	1	0	0	0	-200	1	1	0	400	1	1.1	0.9	0.0000	0.0000	0.0000	0.0000;
	138	1	0	0	0	0	1	1	0	400	1	1.1	0.9	0.0000	0.0000	0.0000	0.0000;
	139	1	0	0	0	0	1	1	0	400	1	1.1	0.9	0.0000	0.0000	0.0000	0.0000;
	140	1	1171.67	561.219	0	750	1	1	0	400	1	1.1	0.9	0.0000	0.0000	0.0000	0.0000;
	141	1	0	0	0	0	1	1	0	400	1	1.1	0.9	0.0000	0.0000	0.0000	0.0000;
	142	1	0	0	0	0	1	1	0	400	1	1.1	0.9	0.0000	0.0000	0.0000	0.0000;
	143	1	0	0	0	300	1	1	0	400	1	1.1	0.9	0.0000	0.0000	0.0000	0.0000;
	144	2	0	0	0	0	1	1	0	400	1	1.1	0.9	0.0000	0.0000	0.0000	0.0000;
	145	1	0	0	0	0	1	1	0	400	1	1.1	0.9	0.0000	0.0000	0.0000	0.0000;
	146	1	349.879	87.6879	0	0	1	1	0	400	1	1.1	0.9	0.0000	0.0000	0.0000	0.0000;
	147	1	1042.91	296.016	0	485	1	1	0	400	1	1.1	0.9	0.0000	0.0000	0.0000	0.0000;
	148	1	0	0	0	0	1	1	0	400	1	1.1	0.9	0.0000	0.0000	0.0000	0.0000;
	149	1	312.55	102.73	0	0	1	1	0	400	1	1.1	0.9	0.0000	0.0000	0.0000	0.0000;
	150	1	0	0	0	0	1	1	0	400	1	1.1	0.9	0.0000	0.0000	0.0000	0.0000;
	151	1	0	0	0	0	1	1	0	400	1	1.1	0.9	0.0000	0.0000	0.0000	0.0000;
	152	1	0	0	0	0	1	1	0	400	1	1.1	0.9	0.0000	0.0000	0.0000	0.0000;
	153	1	0	0	0	0	1	1	0	400	1	1.1	0.9	0.0000	0.0000	0.0000	0.0000;
	154	1	0	0	0	0	1	1	0	400	1	1.1	0.9	0.0000	0.0000	0.0000	0.0000;
	155	1	0	0	0	225	1	1	0	400	1	1.1	0.9	0.0000	0.0000	0.0000	0.0000;
	156	1	1048.7	305.872	0	570	1	1	0	400	1	1.1	0.9	0.0000	0.0000	0.0000	0.0000;
	157	1	48.51	6.9123	0	1140	1	1	0	400	1	1.1	0.9	0.0000	0.0000	0.0000	0.0000;
	158	2	871	0	0	25	1	1	0	400	1	1.1	0.9	0.0000	0.0000	0.0000	0.0000;
	159	1	0	0	0	-200	1	1	0	400	1	1.1	0.9	0.0000	0.0000	0.0000	0.0000;
	160	1	0	0	0	0	1	1	0	400	1	1.1	0.9	0.0000	0.0000	0.0000	0.0000;
	161	1	1793.66	523.152	0	-200	1	1	0	400	1	1.1	0.9	0.0000	0.0000	0.0000	0.0000;
	162	1	772.8	329.211	0	0	1	1	0	400	1	1.1	0.9	0.0000	0.0000	0.0000	0.0000;
	163	1	0	0	0	0	1	1	0	400	1	1.1	0.9	0.0000	0.0000	0.0000	0.0000;
	164	1	374.965	123.245	0	0	1	1	0	400	1	1.1	0.9	0.0000	0.0000	0.0000	0.0000;
	165	2	403.936	127.857	0	0	1	1	0	400	1	1.1	0.9	0.0000	0.0000	0.0000	0.0000;
	166	2	0	0	0	0	1	1	0	400	1	1.1	0.9	0.0000	0.0000	0.0000	0.0000;
	167	1	0	0	0	0	1	1	0	400	1	1.1	0.9	0.0000	0.0000	0.0000	0.0000;
	168	1	1517.62	498.819	0	0	1	1	0	400	1	1.1	0.9	0.0000	0.0000	0.0000	0.0000;
	169	1	148.507	37.2194	0	0	1	1	0	275	1	1.1	0.9	0.0000	0.0000	0.0000	0.0000;
	170	1	0	0	0	0	1	1	0	275	1	1.1	0.9	0.0000	0.0000	0.0000	0.0000;
	171	1	74.872	15.2034	0	0	1	1	0	275	1	1.1	0.9	0.0000	0.0000	0.0000	0.0000;
	172	1	176.448	51.464	0	0	1	1	0	275	1	1.1	0.9	0.0000	0.0000	0.0000	0.0000;
	173	1	1233.6	359.8	0	50	1	1	0	275	1	1.1	0.9	0.0000	0.0000	0.0000	0.0000;
	174	1	108.94	20.4967	0	0	1	1	0	275	1	1.1	0.9	0.0000	0.0000	0.0000	0.0000;
	175	1	833.952	243.236	0	0	1	1	0	275	1	1.1	0.9	0.0000	0.0000	0.0000	0.0000;
	176	1	73.92	21.56	0	0	1	1	0	275	1	1.1	0.9	0.0000	0.0000	0.0000	0.0000;
	177	1	213.36	84.541	0	450	1	1	0	275	1	1.1	0.9	0.0000	0.0000	0.0000	0.0000;
	178	1	937.55	288.073	0	0	1	1	0	275	1	1.1	0.9	0.0000	0.0000	0.0000	0.0000;
	179	1	769.501	192.855	0	150	1	1	0	275	1	1.1	0.9	0.0000	0.0000	0.0000	0.0000;
	180	1	0	0	0	0	1	1	0	275	1	1.1	0.9	0.0000	0.0000	0.0000	0.0000;
	181	1	1273.35	178.919	0	0	1	1	0	275	1	1.1	0.9	0.0000	0.0000	0.0000	0.0000;
	182	1	0	0	0	150	1	1	0	275	1	1.1	0.9	0.0000	0.0000	0.0000	0.0000;
	183	1	0	0	0	0	1	1	0	275	1	1.1	0.9	0.0000	0.0000	0.0000	0.0000;
	184	2	492.2	209.676	0	37.2	1	1	0	275	1	1.1	0.9	0.0000	0.0000	0.0000	0.0000;
	185	1	0	0	0	0	1	1	0	275	1	1.1	0.9	0.0000	0.0000	0.0000	0.0000;
	186	1	82.6	84.2689	0	0	1	1	0	275	1	1.1	0.9	0.0000	0.0000	0.0000	0.0000;
	187	1	316.4	230.78	0	0	1	1	0	275	1	1.1	0.9	0.0000	0.0000	0.0000	0.0000;
	188	1	397.714	144.351	0	0	1	1	0	275	1	1.1	0.9	0.0000	0.0000	0.0000	0.0000;
	189	1	188.22	98.3561	0	0	1	1	0	275	1	1.1	0.9	0.0000	0.0000	0.0000	0.0000;
	190	1	562.32	80.1263	0	0	1	1	0	275	1	1.1	0.9	0.0000	0.0000	0.0000	0.0000;
	191	1	729.312	212.716	0	0	1	1	0	275	1	1.1	0.9	0.0000	0.0000	0.0000	0.0000;
	192	1	99.91	25.0398	0	0	1	1	0	275	1	1.1	0.9	0.0000	0.0000	0.0000	0.0000;
	193	1	0	0	0	0	1	1	0	275	1	1.1	0.9	0.0000	0.0000	0.0000	0.0000;
	194	1	321.984	93.912	0	150	1	1	0	275	1	1.1	0.9	0.0000	0.0000	0.0000	0.0000;
	195	1	0	0	0	0	1	1	0	275	1	1.1	0.9	0.0000	0.0000	0.0000	0.0000;
	196	1	1040.37	228.329	0	0	1	1	0	275	1	1.1	0.9	0.0000	0.0000	0.0000	0.0000;
	197	1	408.288	119.084	0	0	1	1	0	275	1	1.1	0.9	0.0000	0.0000	0.0000	0.0000;
	198	1	64.24	34.6731	0	0	1	1	0	275	1	1.1	0.9	0.0000	0.0000	0.0000	0.0000;
	199	1	1493.66	435.652	0	-200	1	1	0	275	1	1.1	0.9	0.0000	0.0000	0.0000	0.0000;
	200	1	448.96	191.256	0	0	1	1	0	275	1	1.1	0.9	0.0000	0.0000	0.0000	0.0000;
...
];

%%%% branch data
%%	fbus	tbus	r	x	b	rateA	rateB	rateC	ratio	angle	status	angmin	angmax	Pf	Qf	Pt	Qt	mu_Sf	mu_St	mu_angmin	mu_angmax
mpc.branch = [
	541	286	0.00156	0.08946	0	240	999	999	1	0	1	-360	360	0.0000	0.0000	0.0000	0.0000	0.0000	0.0000	0.0000	0.0000;
	541	286	0.00156	0.08946	0	240	999	999	1	0	1	-360	360	0.0000	0.0000	0.0000	0.0000	0.0000	0.0000	0.0000	0.0000;
	393	141	0.00122	0.09808	0	240	999	999	1	0	1	-360	360	0.0000	0.0000	0.0000	0.0000	0.0000	0.0000	0.0000	0.0000;
	393	141	0.00126	0.09796	0	240	999	999	1	0	1	-360	360	0.0000	0.0000	0.0000	0.0000	0.0000	0.0000	0.0000	0.0000;
	289	106	0.00013	0.016	0	1000	999	999	1	0	1	-360	360	0.0000	0.0000	0.0000	0.0000	0.0000	0.0000	0.0000	0.0000;
	289	106	0.00013	0.016	0	1000	999	999	1	0	1	-360	360	0.0000	0.0000	0.0000	0.0000	0.0000	0.0000	0.0000	0.0000;
	611	366	0.00172	0.08667	0	120	999	999	1	0	1	-360	360	0.0000	0.0000	0.0000	0.0000	0.0000	0.0000	0.0000	0.0000;
	611	366	0.00345	0.12916	0	120	999	999	1	0	1	-360	360	0.0000	0.0000	0.0000	0.0000	0.0000	0.0000	0.0000	0.0000;
	489	78	0.00167	0.08333	0	240	999	999	1	0	1	-360	360	0.0000	0.0000	0.0000	0.0000	0.0000	0.0000	0.0000	0.0000;
	514	270	0.00115	0.0845	0	240	999	999	1	0	1	-360	360	0.0000	0.0000	0.0000	0.0000	0.0000	0.0000	0.0000	0.0000;
	514	270	0.0012	0.08475	0	240	999	999	1	0	1	-360	360	0.0000	0.0000	0.0000	0.0000	0.0000	0.0000	0.0000	0.0000;
	591	313	0.00165	0.0875	0	240	999	999	1	0	1	-360	360	0.0000	0.0000	0.0000	0.0000	0.0000	0.0000	0.0000	0.0000;
	591	313	0.00165	0.0875	0	240	999	999	1	0	1	-360	360	0.0000	0.0000	0.0000	0.0000	0.0000	0.0000	0.0000	0.0000;
	469	67	0.00133	0.08375	0	240	999	999	1	0	1	-360	360	0.0000	0.0000	0.0000	0.0000	0.0000	0.0000	0.0000	0.0000;
	469	67	0.00134	0.08375	0	240	999	999	1	0	1	-360	360	0.0000	0.0000	0.0000	0.0000	0.0000	0.0000	0.0000	0.0000;
	584	124	0.00112	0.09801	0	240	999	999	1	0	1	-360	360	0.0000	0.0000	0.0000	0.0000	0.0000	0.0000	0.0000	0.0000;
	584	124	0.00113	0.09803	0	240	999	999	1	0	1	-360	360	0.0000	0.0000	0.0000	0.0000	0.0000	0.0000	0.0000	0.0000;
	526	95	0.0011	0.09583	0	240	999	999	1	0	1	-360	360	0.0000	0.0000	0.0000	0.0000	0.0000	0.0000	0.0000	0.0000;
	526	95	0.0011	0.09583	0	240	999	999	1	0	1	-360	360	0.0000	0.0000	0.0000	0.0000	0.0000	0.0000	0.0000	0.0000;
	397	19	0.00112	0.09347	0	360	999	999	1	0	1	-360	360	0.0000	0.0000	0.0000	0.0000	0.0000	0.0000	0.0000	0.0000;
	397	19	0.00112	0.09472	0	360	999	999	1	0	1	-360	360	0.0000	0.0000	0.0000	0.0000	0.0000	0.0000	0.0000	0.0000;
	171	2	0.00018	0.01607	0	1000	999	999	1	0	1	-360	360	0.0000	0.0000	0.0000	0.0000	0.0000	0.0000	0.0000	0.0000;
	171	2	0.00013	0.01665	0	1000	999	999	1	0	1	-360	360	0.0000	0.0000	0.0000	0.0000	0.0000	0.0000	0.0000	0.0000;
	626	346	0.00151	0.08333	0	240	999	999	1	0	1	-360	360	0.0000	0.0000	0.0000	0.0000	0.0000	0.0000	0.0000	0.0000;
	626	346	0.00157	0.0875	0	240	999	999	1	0	1	-360	360	0.0000	0.0000	0.0000	0.0000	0.0000	0.0000	0.0000	0.0000;
	409	204	0.00146	0.08521	0	240	999	999	1	0	1	-360	360	0.0000	0.0000	0.0000	0.0000	0.0000	0.0000	0.0000	0.0000;
	409	204	0.00151	0.08479	0	240	999	999	1	0	1	-360	360	0.0000	0.0000	0.0000	0.0000	0.0000	0.0000	0.0000	0.0000;
	409	27	0.00112	0.09389	0	360	999	999	1	0	1	-360	360	0.0000	0.0000	0.0000	0.0000	0.0000	0.0000	0.0000	0.0000;
	204	27	0.00018	0.01617	0	1000	999	999	1	0	1	-360	360	0.0000	0.0000	0.0000	0.0000	0.0000	0.0000	0.0000	0.0000;
	629	350	0.0014	0.0873	0	240	999	999	1	0	1	-360	360	0.0000	0.0000	0.0000	0.0000	0.0000	0.0000	0.0000	0.0000;
	350	151	0.00013	0.01664	0	1000	999	999	1	0	1	-360	360	0.0000	0.0000	0.0000	0.0000	0.0000	0.0000	0.0000	0.0000;
	304	117	0.00018	0.01706	0	1000	999	999	1	0	1	-360	360	0.0000	0.0000	0.0000	0.0000	0.0000	0.0000	0.0000	0.0000;
	536	102	0.00167	0.08333	0	240	999	999	1	0	1	-360	360	0.0000	0.0000	0.0000	0.0000	0.0000	0.0000	0.0000	0.0000;
	536	102	0.00169	0.08333	0	240	999	999	1	0	1	-360	360	0.0000	0.0000	0.0000	0.0000	0.0000	0.0000	0.0000	0.0000;
	623	342	0.00141	0.08613	0	240	999	999	1	0	1	-360	360	0.0000	0.0000	0.0000	0.0000	0.0000	0.0000	0.0000	0.0000;
	623	342	0.00126	0.08738	0	240	999	999	1	0	1	-360	360	0.0000	0.0000	0.0000	0.0000	0.0000	0.0000	0.0000	0.0000;
	434	217	0.0013	0.08888	0	215	999	999	1	0	1	-360	360	0.0000	0.0000	0.0000	0.0000	0.0000	0.0000	0.0000	0.0000;
	656	367	0.00157	0.08458	0	240	999	999	1	0	1	-360	360	0.0000	0.0000	0.0000	0.0000	0.0000	0.0000	0.0000	0.0000;
	656	367	0.00152	0.08708	0	240	999	999	1	0	1	-360	360	0.0000	0.0000	0.0000	0.0000	0.0000	0.0000	0.0000	0.0000;
	656	367	0.00152	0.08458	0	240	999	999	1	0	1	-360	360	0.0000	0.0000	0.0000	0.0000	0.0000	0.0000	0.0000	0.0000;
	367	167	0.00013	0.0167	0	1000	999	999	1	0	1	-360	360	0.0000	0.0000	0.0000	0.0000	0.0000	0.0000	0.0000	0.0000;
	627	347	0.005	0.1225	0	120	999	999	1	0	1	-360	360	0.0000	0.0000	0.0000	0.0000	0.0000	0.0000	0.0000	0.0000;
	627	347	0.003	0.1218	0	120	999	999	1	0	1	-360	360	0.0000	0.0000	0.0000	0.0000	0.0000	0.0000	0.0000	0.0000;
	627	347	0.005	0.1221	0	120	999	999	1	0	1	-360	360	0.0000	0.0000	0.0000	0.0000	0.0000	0.0000	0.0000	0.0000;
	388	180	0.0054	0.0987	0	150	999	999	1	0	1	-360	360	0.0000	0.0000	0.0000	0.0000	0.0000	0.0000	0.0000	0.0000;
	548	291	0.001	0.0896	0	240	999	999	1	0	1	-360	360	0.0000	0.0000	0.0000	0.0000	0.0000	0.0000	0.0000	0.0000;
	548	291	0.0024	0.0895	0	240	999	999	1	0	1	-360	360	0.0000	0.0000	0.0000	0.0000	0.0000	0.0000	0.0000	0.0000;
	395	238	0.0031	0.1021	0	240	999	999	1	0	1	-360	360	0.0000	0.0000	0.0000	0.0000	0.0000	0.0000	0.0000	0.0000;
	395	238	0.0031	0.1024	0	240	999	999	1	0	1	-360	360	0.0000	0.0000	0.0000	0.0000	0.0000	0.0000	0.0000	0.0000;
	395	238	0.003	0.1217	0	120	999	999	1	0	1	-360	360	0.0000	0.0000	0.0000	0.0000	0.0000	0.0000	0.0000	0.0000;
	602	293	0.0023	0.089	0	240	999	999	1	0	1	-360	360	0.0000	0.0000	0.0000	0.0000	0.0000	0.0000	0.0000	0.0000;
	602	293	0.003	0.0997	0	240	999	999	1	0	1	-360	360	0.0000	0.0000	0.0000	0.0000	0.0000	0.0000	0.0000	0.0000;
	602	293	0.0023	0.089	0	240	999	999	1	0	1	-360	360	0.0000	0.0000	0.0000	0.0000	0.0000	0.0000	0.0000	0.0000;
	530	193	0.0022	0.0891	0	240	999	999	1	0	1	-360	360	0.0000	0.0000	0.0000	0.0000	0.0000	0.0000	0.0000	0.0000;
	530	193	0.0022	0.0887	0	240	999	999	1	0	1	-360	360	0.0000	0.0000	0.0000	0.0000	0.0000	0.0000	0.0000	0.0000;
	619	339	0.0041	0.1178	0	180	999	999	1	0	1	-360	360	0.0000	0.0000	0.0000	0.0000	0.0000	0.0000	0.0000	0.0000;
	619	339	0.0028	0.1173	0	180	999	999	1	0	1	-360	360	0.0000	0.0000	0.0000	0.0000	0.0000	0.0000	0.0000	0.0000;
	619	339	0.0041	0.1189	0	180	999	999	1	0	1	-360	360	0.0000	0.0000	0.0000	0.0000	0.0000	0.0000	0.0000	0.0000;
	438	39	0.00163	0.08415	-0.00692	240	999	999	1	0	1	-360	360	0.0000	0.0000	0.0000	0.0000	0.0000	0.0000	0.0000	0.0000;
	438	39	0.00162	0.08353	-0.00811	240	999	999	1	0	1	-360	360	0.0000	0.0000	0.0000	0.0000	0.0000	0.0000	0.0000	0.0000;
	517	273	0.00165	0.08054	-0.00807	180	999	999	1	0	1	-360	360	0.0000	0.0000	0.0000	0.0000	0.0000	0.0000	0.0000	0.0000;
	517	273	0.00098	0.08199	-0.00115	180	999	999	1	0	1	-360	360	0.0000	0.0000	0.0000	0.0000	0.0000	0.0000	0.0000	0.0000;
	517	273	0.00135	0.08332	-0.00251	240	999	999	1	0	1	-360	360	0.0000	0.0000	0.0000	0.0000	0.0000	0.0000	0.0000	0.0000;
	456	96	0.00148	0.07744	-0.00796	240	999	999	1	0	1	-360	360	0.0000	0.0000	0.0000	0.0000	0.0000	0.0000	0.0000	0.0000;
	456	96	0.00149	0.07699	-0.00813	240	999	999	1	0	1	-360	360	0.0000	0.0000	0.0000	0.0000	0.0000	0.0000	0.0000	0.0000;
	459	178	0.00126	0.08666	-0.00075	240	999	999	1	0	1	-360	360	0.0000	0.0000	0.0000	0.0000	0.0000	0.0000	0.0000	0.0000;
	459	178	0.00125	0.08666	-0.00083	240	999	999	1	0	1	-360	360	0.0000	0.0000	0.0000	0.0000	0.0000	0.0000	0.0000	0.0000;
	459	178	0.00184	0.08109	-0.00375	180	999	999	1	0	1	-360	360	0.0000	0.0000	0.0000	0.0000	0.0000	0.0000	0.0000	0.0000;
	459	178	0.00187	0.08109	-0.00378	180	999	999	1	0	1	-360	360	0.0000	0.0000	0.0000	0.0000	0.0000	0.0000	0.0000	0.0000;
	463	235	0.00166	0.07983	-0.00615	240	999	999	1	0	1	-360	360	0.0000	0.0000	0.0000	0.0000	0.0000	0.0000	0.0000	0.0000;
	463	235	0.00166	0.0805	-0.00604	240	999	999	1	0	1	-360	360	0.0000	0.0000	0.0000	0.0000	0.0000	0.0000	0.0000	0.0000;
	463	235	0.00168	0.07979	-0.00581	240	999	999	1	0	1	-360	360	0.0000	0.0000	0.0000	0.0000	0.0000	0.0000	0.0000	0.0000;
	463	235	0.00165	0.08042	-0.00498	240	999	999	1	0	1	-360	360	0.0000	0.0000	0.0000	0.0000	0.0000	0.0000	0.0000	0.0000;
	463	235	0.00313	0.13046	-0.0147	120	999	999	1	0	1	-360	360	0.0000	0.0000	0.0000	0.0000	0.0000	0.0000	0.0000	0.0000;
	463	235	0.00306	0.13021	-0.01756	120	999	999	1	0	1	-360	360	0.0000	0.0000	0.0000	0.0000	0.0000	0.0000	0.0000	0.0000;
	387	179	0.00168	0.0854	-0.00251	240	999	999	1	0	1	-360	360	0.0000	0.0000	0.0000	0.0000	0.0000	0.0000	0.0000	0.0000;
	387	179	0.00186	0.0833	-0.00251	240	999	999	1	0	1	-360	360	0.0000	0.0000	0.0000	0.0000	0.0000	0.0000	0.0000	0.0000;
	387	179	0.00138	0.0854	-0.00409	240	999	999	1	0	1	-360	360	0.0000	0.0000	0.0000	0.0000	0.0000	0.0000	0.0000	0.0000;
	483	76	0.00139	0.07915	-0.00317	240	999	999	1	0	1	-360	360	0.0000	0.0000	0.0000	0.0000	0.0000	0.0000	0.0000	0.0000;
	483	76	0.00139	0.07915	-0.00317	240	999	999	1	0	1	-360	360	0.0000	0.0000	0.0000	0.0000	0.0000	0.0000	0.0000	0.0000;
	638	32	0.00126	0.08445	-0.00317	276	999	999	1	0	1	-360	360	0.0000	0.0000	0.0000	0.0000	0.0000	0.0000	0.0000	0.0000;
	638	32	0.00155	0.08165	-0.01043	276	999	999	1	0	1	-360	360	0.0000	0.0000	0.0000	0.0000	0.0000	0.0000	0.0000	0.0000;
	638	32	0.00137	0.08035	-0.00287	276	999	999	1	0	1	-360	360	0.0000	0.0000	0.0000	0.0000	0.0000	0.0000	0.0000	0.0000;
	638	32	0.00138	0.07959	-0.00286	276	999	999	1	0	1	-360	360	0.0000	0.0000	0.0000	0.0000	0.0000	0.0000	0.0000	0.0000;
	638	32	0.00137	0.07974	-0.00301	276	999	999	1	0	1	-360	360	0.0000	0.0000	0.0000	0.0000	0.0000	0.0000	0.0000	0.0000;
	516	356	0.00162	0.08207	-0.00251	240	999	999	1	0	1	-360	360	0.0000	0.0000	0.0000	0.0000	0.0000	0.0000	0.0000	0.0000;
	516	356	0.00112	0.08658	0	240	999	999	1	0	1	-360	360	0.0000	0.0000	0.0000	0.0000	0.0000	0.0000	0.0000	0.0000;
	516	356	0.00158	0.08103	-0.00251	240	999	999	1	0	1	-360	360	0.0000	0.0000	0.0000	0.0000	0.0000	0.0000	0.0000	0.0000;
	516	356	0.00161	0.08186	-0.00666	240	999	999	1	0	1	-360	360	0.0000	0.0000	0.0000	0.0000	0.0000	0.0000	0.0000	0.0000;
	492	253	0.00189	0.0852	-0.00424	180	999	999	1	0	1	-360	360	0.0000	0.0000	0.0000	0.0000	0.0000	0.0000	0.0000	0.0000;
	492	253	0.00188	0.08476	-0.00377	180	999	999	1	0	1	-360	360	0.0000	0.0000	0.0000	0.0000	0.0000	0.0000	0.0000	0.0000;
	492	253	0.00196	0.08353	-0.01288	180	999	999	1	0	1	-360	360	0.0000	0.0000	0.0000	0.0000	0.0000	0.0000	0.0000	0.0000;
	492	253	0.00195	0.08331	0	240	999	999	1	0	1	-360	360	0.0000	0.0000	0.0000	0.0000	0.0000	0.0000	0.0000	0.0000;
	492	253	0.00135	0.08332	0.01032	240	999	999	1	0	1	-360	360	0.0000	0.0000	0.0000	0.0000	0.0000	0.0000	0.0000	0.0000;
	486	294	0.00286	0.1233	-0.01519	120	999	999	1	0	1	-360	360	0.0000	0.0000	0.0000	0.0000	0.0000	0.0000	0.0000	0.0000;
	486	294	0.00291	0.12213	-0.01547	120	999	999	1	0	1	-360	360	0.0000	0.0000	0.0000	0.0000	0.0000	0.0000	0.0000	0.0000;
	486	294	0.0019	0.0853	-0.00382	180	999	999	1	0	1	-360	360	0.0000	0.0000	0.0000	0.0000	0.0000	0.0000	0.0000	0.0000;
	486	294	0.00193	0.08526	-0.004	180	999	999	1	0	1	-360	360	0.0000	0.0000	0.0000	0.0000	0.0000	0.0000	0.0000	0.0000;
	486	294	0.00175	0.0839	-0.00778	180	999	999	1	0	1	-360	360	0.0000	0.0000	0.0000	0.0000	0.0000	0.0000	0.0000	0.0000;
	486	109	0.00163	0.08333	-0.00317	240	999	999	1	0	1	-360	360	0.0000	0.0000	0.0000	0.0000	0.0000	0.0000	0.0000	0.0000;
	615	140	0.00156	0.08449	-0.00317	240	999	999	1	0	1	-360	360	0.0000	0.0000	0.0000	0.0000	0.0000	0.0000	0.0000	0.0000;
	615	140	0.00156	0.08449	-0.00846	240	999	999	1	0	1	-360	360	0.0000	0.0000	0.0000	0.0000	0.0000	0.0000	0.0000	0.0000;
	615	140	0.00137	0.08316	-0.00208	240	999	999	1	0	1	-360	360	0.0000	0.0000	0.0000	0.0000	0.0000	0.0000	0.0000	0.0000;
	615	140	0.00167	0.08294	-0.00919	240	999	999	1	0	1	-360	360	0.0000	0.0000	0.0000	0.0000	0.0000	0.0000	0.0000	0.0000;
	615	140	0.00139	0.07915	-0.00317	240	999	999	1	0	1	-360	360	0.0000	0.0000	0.0000	0.0000	0.0000	0.0000	0.0000	0.0000;
	477	241	0.00166	0.08	-0.00445	240	999	999	1	0	1	-360	360	0.0000	0.0000	0.0000	0.0000	0.0000	0.0000	0.0000	0.0000;
	477	241	0.00146	0.08625	-0.00251	240	999	999	1	0	1	-360	360	0.0000	0.0000	0.0000	0.0000	0.0000	0.0000	0.0000	0.0000;
	477	241	0.00312	0.12163	-0.00542	120	999	999	1	0	1	-360	360	0.0000	0.0000	0.0000	0.0000	0.0000	0.0000	0.0000	0.0000;
	477	241	0.0031	0.12246	-0.00631	120	999	999	1	0	1	-360	360	0.0000	0.0000	0.0000	0.0000	0.0000	0.0000	0.0000	0.0000;
	369	94	0.00154	0.08182	-0.00317	240	999	999	1	0	1	-360	360	0.0000	0.0000	0.0000	0.0000	0.0000	0.0000	0.0000	0.0000;
	369	94	0.00104	0.07958	-0.00317	240	999	999	1	0	1	-360	360	0.0000	0.0000	0.0000	0.0000	0.0000	0.0000	0.0000	0.0000;
	369	94	0.00106	0.07916	-0.00317	240	999	999	1	0	1	-360	360	0.0000	0.0000	0.0000	0.0000	0.0000	0.0000	0.0000	0.0000;
	369	94	0.00154	0.08182	0.00154	240	999	999	1	0	1	-360	360	0.0000	0.0000	0.0000	0.0000	0.0000	0.0000	0.0000	0.0000;
	569	300	0.00379	0.12052	-0.00299	120	999	999	1	0	1	-360	360	0.0000	0.0000	0.0000	0.0000	0.0000	0.0000	0.0000	0.0000;
	569	300	0.00301	0.1383	-0.01242	120	999	999	1	0	1	-360	360	0.0000	0.0000	0.0000	0.0000	0.0000	0.0000	0.0000	0.0000;
	569	116	0.00139	0.07915	-0.00317	240	999	999	1	0	1	-360	360	0.0000	0.0000	0.0000	0.0000	0.0000	0.0000	0.0000	0.0000;
	590	111	0.00161	0.08336	-0.00711	240	999	999	1	0	1	-360	360	0.0000	0.0000	0.0000	0.0000	0.0000	0.0000	0.0000	0.0000;
	590	111	0.00161	0.08498	-0.00372	240	999	999	1	0	1	-360	360	0.0000	0.0000	0.0000	0.0000	0.0000	0.0000	0.0000	0.0000;
	546	107	0.00172	0.08332	-0.00317	240	999	999	1	0	1	-360	360	0.0000	0.0000	0.0000	0.0000	0.0000	0.0000	0.0000	0.0000;
	546	107	0.00139	0.08332	-0.01066	240	999	999	1	0	1	-360	360	0.0000	0.0000	0.0000	0.0000	0.0000	0.0000	0.0000	0.0000;
	546	107	0.00119	0.08174	-0.00292	240	999	999	1	0	1	-360	360	0.0000	0.0000	0.0000	0.0000	0.0000	0.0000	0.0000	0.0000;
	546	107	0.00166	0.08648	-0.01109	240	999	999	1	0	1	-360	360	0.0000	0.0000	0.0000	0.0000	0.0000	0.0000	0.0000	0.0000;
	657	295	0.00169	0.08446	-0.00803	180	999	999	1	0	1	-360	360	0.0000	0.0000	0.0000	0.0000	0.0000	0.0000	0.0000	0.0000;
	657	295	0.00167	0.0861	-0.00706	180	999	999	1	0	1	-360	360	0.0000	0.0000	0.0000	0.0000	0.0000	0.0000	0.0000	0.0000;
	657	295	0.00171	0.08259	-0.00335	180	999	999	1	0	1	-360	360	0.0000	0.0000	0.0000	0.0000	0.0000	0.0000	0.0000	0.0000;
	657	295	0.00172	0.08387	-0.0066	180	999	999	1	0	1	-360	360	0.0000	0.0000	0.0000	0.0000	0.0000	0.0000	0.0000	0.0000;
	575	256	0.00192	0.08081	-0.00986	180	999	999	1	0	1	-360	360	0.0000	0.0000	0.0000	0.0000	0.0000	0.0000	0.0000	0.0000;
	575	256	0.00103	0.08105	-0.00169	180	999	999	1	0	1	-360	360	0.0000	0.0000	0.0000	0.0000	0.0000	0.0000	0.0000	0.0000;
	575	256	0.00198	0.0812	-0.00972	180	999	999	1	0	1	-360	360	0.0000	0.0000	0.0000	0.0000	0.0000	0.0000	0.0000	0.0000;
	575	256	0.00182	0.0822	-0.01125	180	999	999	1	0	1	-360	360	0.0000	0.0000	0.0000	0.0000	0.0000	0.0000	0.0000	0.0000;
	575	256	0.00345	0.11161	-0.01407	120	999	999	1	0	1	-360	360	0.0000	0.0000	0.0000	0.0000	0.0000	0.0000	0.0000	0.0000;
	575	256	0.00359	0.11278	-0.01605	120	999	999	1	0	1	-360	360	0.0000	0.0000	0.0000	0.0000	0.0000	0.0000	0.0000	0.0000;
	575	256	0.00135	0.08332	0	240	999	999	1	0	1	-360	360	0.0000	0.0000	0.0000	0.0000	0.0000	0.0000	0.0000	0.0000;
	445	74	0.00151	0.07894	-0.01162	240	999	999	1	0	1	-360	360	0.0000	0.0000	0.0000	0.0000	0.0000	0.0000	0.0000	0.0000;
	445	74	0.0015	0.07707	-0.01243	240	999	999	1	0	1	-360	360	0.0000	0.0000	0.0000	0.0000	0.0000	0.0000	0.0000	0.0000;
	598	320	0.00112	0.08666	-0.00147	240	999	999	1	0	1	-360	360	0.0000	0.0000	0.0000	0.0000	0.0000	0.0000	0.0000	0.0000;
	598	320	0.00092	0.08754	-0.00188	240	999	999	1	0	1	-360	360	0.0000	0.0000	0.0000	0.0000	0.0000	0.0000	0.0000	0.0000;
	598	320	0.00112	0.08666	-0.00142	240	999	999	1	0	1	-360	360	0.0000	0.0000	0.0000	0.0000	0.0000	0.0000	0.0000	0.0000;
	598	320	0.00285	0.125	-0.00715	120	999	999	1	0	1	-360	360	0.0000	0.0000	0.0000	0.0000	0.0000	0.0000	0.0000	0.0000;
	598	320	0.00373	0.11566	-0.00715	120	999	999	1	0	1	-360	360	0.0000	0.0000	0.0000	0.0000	0.0000	0.0000	0.0000	0.0000;
	396	128	0.00144	0.08415	-0.00686	240	999	999	1	0	1	-360	360	0.0000	0.0000	0.0000	0.0000	0.0000	0.0000	0.0000	0.0000;
	396	128	0.00134	0.08707	-0.01172	240	999	999	1	0	1	-360	360	0.0000	0.0000	0.0000	0.0000	0.0000	0.0000	0.0000	0.0000;
	396	128	0.00104	0.07958	-0.00317	240	999	999	1	0	1	-360	360	0.0000	0.0000	0.0000	0.0000	0.0000	0.0000	0.0000	0.0000;
	396	128	0.00137	0.0802	-0.00347	240	999	999	1	0	1	-360	360	0.0000	0.0000	0.0000	0.0000	0.0000	0.0000	0.0000	0.0000;
	403	23	0.00159	0.08374	-0.00246	240	999	999	1	0	1	-360	360	0.0000	0.0000	0.0000	0.0000	0.0000	0.0000	0.0000	0.0000;
	403	23	0.00158	0.08248	-0.00918	240	999	999	1	0	1	-360	360	0.0000	0.0000	0.0000	0.0000	0.0000	0.0000	0.0000	0.0000;
	403	23	0.00159	0.07965	-0.00786	240	999	999	1	0	1	-360	360	0.0000	0.0000	0.0000	0.0000	0.0000	0.0000	0.0000	0.0000;
	403	23	0.00158	0.08353	-0.01001	240	999	999	1	0	1	-360	360	0.0000	0.0000	0.0000	0.0000	0.0000	0.0000	0.0000	0.0000;
	625	149	0.00165	0.08328	-0.00831	240	999	999	1	0	1	-360	360	0.0000	0.0000	0.0000	0.0000	0.0000	0.0000	0.0000	0.0000;
	625	149	0.00164	0.08357	-0.00845	240	999	999	1	0	1	-360	360	0.0000	0.0000	0.0000	0.0000	0.0000	0.0000	0.0000	0.0000;
	603	12	0.00112	0.08412	-0.00242	240	999	999	1	0	1	-360	360	0.0000	0.0000	0.0000	0.0000	0.0000	0.0000	0.0000	0.0000;
	603	12	0.00109	0.08412	-0.00244	240	999	999	1	0	1	-360	360	0.0000	0.0000	0.0000	0.0000	0.0000	0.0000	0.0000	0.0000;
	603	12	0.00109	0.08408	-0.00142	240	999	999	1	0	1	-360	360	0.0000	0.0000	0.0000	0.0000	0.0000	0.0000	0.0000	0.0000;
	603	12	0.00104	0.08416	-0.00138	240	999	999	1	0	1	-360	360	0.0000	0.0000	0.0000	0.0000	0.0000	0.0000	0.0000	0.0000;
	384	177	0.00345	0.12495	-0.00715	120	999	999	1	0	1	-360	360	0.0000	0.0000	0.0000	0.0000	0.0000	0.0000	0.0000	0.0000;
	384	177	0.00345	0.12495	-0.00715	120	999	999	1	0	1	-360	360	0.0000	0.0000	0.0000	0.0000	0.0000	0.0000	0.0000	0.0000;
	384	177	0.00337	0.11662	-0.01532	120	999	999	1	0	1	-360	360	0.0000	0.0000	0.0000	0.0000	0.0000	0.0000	0.0000	0.0000;
	384	177	0.00288	0.12247	-0.00168	120	999	999	1	0	1	-360	360	0.0000	0.0000	0.0000	0.0000	0.0000	0.0000	0.0000	0.0000;
	384	177	0.00116	0.08708	0	222	999	999	1	0	1	-360	360	0.0000	0.0000	0.0000	0.0000	0.0000	0.0000	0.0000	0.0000;
	577	119	0.00163	0.08323	-0.00456	240	999	999	1	0	1	-360	360	0.0000	0.0000	0.0000	0.0000	0.0000	0.0000	0.0000	0.0000;
	577	119	0.00122	0.08087	-0.0059	240	999	999	1	0	1	-360	360	0.0000	0.0000	0.0000	0.0000	0.0000	0.0000	0.0000	0.0000;
	577	119	0.00137	0.07957	-0.00292	240	999	999	1	0	1	-360	360	0.0000	0.0000	0.0000	0.0000	0.0000	0.0000	0.0000	0.0000;
	402	196	0.00197	0.07842	-0.00562	180	999	999	1	0	1	-360	360	0.0000	0.0000	0.0000	0.0000	0.0000	0.0000	0.0000	0.0000;
	402	196	0.00196	0.07775	-0.00746	180	999	999	1	0	1	-360	360	0.0000	0.0000	0.0000	0.0000	0.0000	0.0000	0.0000	0.0000;
	402	196	0.00135	0.08332	-0.00251	240	999	999	1	0	1	-360	360	0.0000	0.0000	0.0000	0.0000	0.0000	0.0000	0.0000	0.0000;
	402	196	0.00191	0.0772	-0.00336	180	999	999	1	0	1	-360	360	0.0000	0.0000	0.0000	0.0000	0.0000	0.0000	0.0000	0.0000;
	402	196	0.00196	0.07886	-0.00565	180	999	999	1	0	1	-360	360	0.0000	0.0000	0.0000	0.0000	0.0000	0.0000	0.0000	0.0000;
	402	196	0.00135	0.08332	-0.00251	240	999	999	1	0	1	-360	360	0.0000	0.0000	0.0000	0.0000	0.0000	0.0000	0.0000	0.0000;
	400	21	0.00158	0.08353	-0.01136	240	999	999	1	0	1	-360	360	0.0000	0.0000	0.0000	0.0000	0.0000	0.0000	0.0000	0.0000;
	400	21	0.0016	0.08353	-0.00956	240	999	999	1	0	1	-360	360	0.0000	0.0000	0.0000	0.0000	0.0000	0.0000	0.0000	0.0000;
	400	21	0.00139	0.07915	-0.00317	240	999	999	1	0	1	-360	360	0.0000	0.0000	0.0000	0.0000	0.0000	0.0000	0.0000	0.0000;
	490	65	0.0011	0.08328	-0.0023	240	999	999	1	0	1	-360	360	0.0000	0.0000	0.0000	0.0000	0.0000	0.0000	0.0000	0.0000;
	490	65	0.0013	0.08453	-0.01458	240	999	999	1	0	1	-360	360	0.0000	0.0000	0.0000	0.0000	0.0000	0.0000	0.0000	0.0000;
	490	65	0.00147	0.08249	-0.00254	240	999	999	1	0	1	-360	360	0.0000	0.0000	0.0000	0.0000	0.0000	0.0000	0.0000	0.0000;
	631	352	0.00123	0.0835	-0.00593	240	999	999	1	0	1	-360	360	0.0000	0.0000	0.0000	0.0000	0.0000	0.0000	0.0000	0.0000;
	631	352	0.0012	0.0831	-0.00671	240	999	999	1	0	1	-360	360	0.0000	0.0000	0.0000	0.0000	0.0000	0.0000	0.0000	0.0000;
	631	152	0.00139	0.07915	-0.00317	240	999	999	1	0	1	-360	360	0.0000	0.0000	0.0000	0.0000	0.0000	0.0000	0.0000	0.0000;
	631	352	0.00165	0.07998	-0.00541	240	999	999	1	0	1	-360	360	0.0000	0.0000	0.0000	0.0000	0.0000	0.0000	0.0000	0.0000;
	631	352	0.00113	0.08645	-0.00952	240	999	999	1	0	1	-360	360	0.0000	0.0000	0.0000	0.0000	0.0000	0.0000	0.0000	0.0000;
	465	64	0.00176	0.07987	-0.00652	240	999	999	1	0	1	-360	360	0.0000	0.0000	0.0000	0.0000	0.0000	0.0000	0.0000	0.0000;
	465	64	0.00176	0.07946	-0.00664	240	999	999	1	0	1	-360	360	0.0000	0.0000	0.0000	0.0000	0.0000	0.0000	0.0000	0.0000;
	610	332	0.00114	0.08708	-0.0014	240	999	999	1	0	1	-360	360	0.0000	0.0000	0.0000	0.0000	0.0000	0.0000	0.0000	0.0000;
	610	332	0.00186	0.0804	-0.00251	240	999	999	1	0	1	-360	360	0.0000	0.0000	0.0000	0.0000	0.0000	0.0000	0.0000	0.0000;
	610	332	0.00135	0.08015	-0.00109	240	999	999	1	0	1	-360	360	0.0000	0.0000	0.0000	0.0000	0.0000	0.0000	0.0000	0.0000;
	564	212	0.00115	0.08666	-0.00251	240	999	999	1	0	1	-360	360	0.0000	0.0000	0.0000	0.0000	0.0000	0.0000	0.0000	0.0000;
	564	212	0.00115	0.08666	-0.00251	240	999	999	1	0	1	-360	360	0.0000	0.0000	0.0000	0.0000	0.0000	0.0000	0.0000	0.0000;
	653	165	0.001	0.07999	-0.01063	240	999	999	1	0	1	-360	360	0.0000	0.0000	0.0000	0.0000	0.0000	0.0000	0.0000	0.0000;
	653	165	0.00104	0.07958	-0.00949	240	999	999	1	0	1	-360	360	0.0000	0.0000	0.0000	0.0000	0.0000	0.0000	0.0000	0.0000;
	653	165	0.00165	0.08125	-0.00287	240	999	999	1	0	1	-360	360	0.0000	0.0000	0.0000	0.0000	0.0000	0.0000	0.0000	0.0000;
	507	85	0.00119	0.08366	-0.00178	240	999	999	1	0	1	-360	360	0.0000	0.0000	0.0000	0.0000	0.0000	0.0000	0.0000	0.0000;
	507	85	0.00119	0.08366	-0.00175	240	999	999	1	0	1	-360	360	0.0000	0.0000	0.0000	0.0000	0.0000	0.0000	0.0000	0.0000;
	507	85	0.00119	0.08362	-0.00168	240	999	999	1	0	1	-360	360	0.0000	0.0000	0.0000	0.0000	0.0000	0.0000	0.0000	0.0000;
	507	265	0.00194	0.08053	-0.00541	180	999	999	1	0	1	-360	360	0.0000	0.0000	0.0000	0.0000	0.0000	0.0000	0.0000	0.0000;
	375	358	0.0011	0.08674	-0.00789	240	999	999	1	0	1	-360	360	0.0000	0.0000	0.0000	0.0000	0.0000	0.0000	0.0000	0.0000;
	375	358	0.00113	0.08691	-0.00839	240	999	999	1	0	1	-360	360	0.0000	0.0000	0.0000	0.0000	0.0000	0.0000	0.0000	0.0000;
	375	358	0.00193	0.08376	-0.00639	180	999	999	1	0	1	-360	360	0.0000	0.0000	0.0000	0.0000	0.0000	0.0000	0.0000	0.0000;
	375	358	0.00193	0.08342	-0.0077	180	999	999	1	0	1	-360	360	0.0000	0.0000	0.0000	0.0000	0.0000	0.0000	0.0000	0.0000;
	521	9	0.00142	0.08028	-0.0025	240	999	999	1	0	1	-360	360	0.0000	0.0000	0.0000	0.0000	0.0000	0.0000	0.0000	0.0000;
	521	9	0.00138	0.08078	-0.00312	240	999	999	1	0	1	-360	360	0.0000	0.0000	0.0000	0.0000	0.0000	0.0000	0.0000	0.0000;
	521	9	0.00139	0.08091	-0.00346	240	999	999	1	0	1	-360	360	0.0000	0.0000	0.0000	0.0000	0.0000	0.0000	0.0000	0.0000;
...
];

%%%% generator data
%%	bus	Pg	Qg	Qmax	Qmin	Vg	mBase	status	Pmax	Pmin	mu_Pmax	mu_Pmin	mu_Qmax	mu_Qmin
mpc.gen = [
	19	100	0	273.8	-145.9	1	100	1	545	136.25	0	0	0	0;
	19	100	0	104.2	-145.4	1	100	1	545	136.25	0	0	0	0;
	102	100	0	296.9	-272.5	1	100	1	600	150	0	0	0	0;
	102	100	0	296.9	-272.5	1	100	1	600	150	0	0	0	0;
	94	100	0	157.2	-174.4	1	100	1	345	86.25	0	0	0	0;
	94	100	0	157.1	-174.5	1	100	1	345	86.25	0	0	0	0;
	94	100	0	156.8	-174.7	1	100	1	345	86.25	0	0	0	0;
	94	100	0	157.8	-174.6	1	100	1	345	86.25	0	0	0	0;
	92	100	0	130.9	-135.4	1	100	1	266.7	66.675	0	0	0	0;
	92	100	0	130.9	-135.4	1	100	1	266.7	66.675	0	0	0	0;
	92	100	0	155.6	-122.4	1	100	1	266.7	66.675	0	0	0	0;
	53	100	0	174.1	-193.4	1	100	1	495	123.75	0	0	0	0;
	53	100	0	154.9	-190.2	1	100	1	505	126.25	0	0	0	0;
	53	100	0	155.4	-195.1	1	100	1	505	126.25	0	0	0	0;
	53	100	0	175.7	-192.1	1	100	1	495	123.75	0	0	0	0;
	53	100	0	164.8	-183.9	1	100	1	395	98.75	0	0	0	0;
	113	100	0	121.5	-129.3	1	100	1	273	68.25	0	0	0	0;
	113	100	0	112	-130.4	1	100	1	273	68.25	0	0	0	0;
	113	100	0	118.7	-121.7	1	100	1	259	64.75	0	0	0	0;
	94	100	0	73.3	-85.4	1	100	1	89.5	22.375	0	0	0	0;
	94	100	0	73.3	-85.4	1	100	1	163	40.75	0	0	0	0;
	94	100	0	101.2	-67.4	1	100	1	148	37	0	0	0	0;
	101	100	0	183.6	-267	1	100	1	527	131.75	0	0	0	0;
	101	100	0	202.4	-258.1	1	100	1	527	131.75	0	0	0	0;
	101	100	0	187.1	-264	1	100	1	527	131.75	0	0	0	0;
	101	100	0	183.8	-266.9	1	100	1	527	131.75	0	0	0	0;
	101	100	0	10	-10	1	100	1	25	6.25	0	0	0	0;
	101	100	0	10	-10	1	100	1	25	6.25	0	0	0	0;
	101	100	0	10	-10	1	100	1	25	6.25	0	0	0	0;
	101	100	0	10	-10	1	100	1	25	6.25	0	0	0	0;
	101	100	0	60.9	-89.9	1	100	1	240.7	60.175	0	0	0	0;
	101	100	0	60.9	-89.9	1	100	1	240.7	60.175	0	0	0	0;
	101	100	0	76.1	-111.9	1	100	1	293.4	73.35	0	0	0	0;
	101	100	0	64.3	-88.2	1	100	1	237.7	59.425	0	0	0	0;
	101	100	0	72.5	-84	1	100	1	237.7	59.425	0	0	0	0;
	101	100	0	105.2	-122	1	100	1	299.8	74.95	0	0	0	0;
	51	100	0	90.1	-139.9	1	100	1	274	68.5	0	0	0	0;
	51	100	0	90.1	-139.9	1	100	1	274	68.5	0	0	0	0;
	51	100	0	90.1	-139.9	1	100	1	274	68.5	0	0	0	0;
	51	100	0	90.1	-139.9	1	100	1	274	68.5	0	0	0	0;
	51	100	0	90.1	-139.9	1	100	1	274	68.5	0	0	0	0;
	51	100	0	90.1	-139.9	1	100	1	274	68.5	0	0	0	0;
	111	100	0	268.2	-289	1	100	1	649	162.25	0	0	0	0;
	111	100	0	268.8	-288.5	1	100	1	649	162.25	0	0	0	0;
	111	100	0	266.4	-290.5	1	100	1	649	162.25	0	0	0	0;
	111	100	0	271.7	-271.1	1	100	1	649	162.25	0	0	0	0;
	111	100	0	270.8	-271.9	1	100	1	649	162.25	0	0	0	0;
	111	100	0	271.9	-271	1	100	1	649	162.25	0	0	0	0;
	110	100	0	315	-286.4	1	100	1	541	135.25	0	0	0	0;
	110	100	0	308.6	-297.8	1	100	1	541	135.25	0	0	0	0;
	38	100	0	209.1	-144.6	1	100	1	483	120.75	0	0	0	0;
	38	100	0	217.1	-150.6	1	100	1	483	120.75	0	0	0	0;
	38	100	0	164.7	-144.1	1	100	1	483	120.75	0	0	0	0;
	38	100	0	184.3	-148.2	1	100	1	483	120.75	0	0	0	0;
	74	100	0	199	-156.7	1	100	1	500	125	0	0	0	0;
	74	100	0	201.3	-154.3	1	100	1	500	125	0	0	0	0;
	74	100	0	6.8	-6.8	1	100	1	17	4.25	0	0	0	0;
	74	100	0	9.2	-9.2	1	100	1	23	5.75	0	0	0	0;
	74	100	0	6.8	-6.8	1	100	1	17	4.25	0	0	0	0;
	74	100	0	3.2	-3.2	1	100	1	8	2	0	0	0	0;
	103	100	0	242.4	-237.1	1	100	1	650	162.5	0	0	0	0;
	103	100	0	242.4	-237.1	1	100	1	0	0	0	0	0	0;
	103	100	0	0	0	1	100	1	0	0	0	0	0	0;
	103	100	0	0	0	1	100	1	650	162.5	0	0	0	0;
	103	100	0	22	-22	1	100	1	55	13.75	0	0	0	0;
	103	100	0	0	-0	1	100	1	0	0	0	0	0	0;
	103	100	0	0	-0	1	100	1	0	0	0	0	0	0;
	103	100	0	0	-0	1	100	1	0	0	0	0	0	0;
	103	100	0	0	-0	1	100	1	0	0	0	0	0	0;
	119	100	0	286.3	-289.2	1	100	1	607	151.75	0	0	0	0;
	119	100	0	292.6	-288.7	1	100	1	596	149	0	0	0	0;
	119	100	0	269.2	-266.2	1	100	1	601	150.25	0	0	0	0;
	119	100	0	265.7	-264.6	1	100	1	603	150.75	0	0	0	0;
	15	100	0	202.8	-248.6	1	100	1	644	161	0	0	0	0;
	15	100	0	193.5	-290.8	1	100	1	617	154.25	0	0	0	0;
	17	100	0	118.5	-122.4	1	100	1	244	61	0	0	0	0;
	17	100	0	118.5	-122.4	1	100	1	262	65.5	0	0	0	0;
	17	100	0	54.6	-53.5	1	100	1	117	29.25	0	0	0	0;
	17	100	0	54.6	-53.5	1	100	1	117	29.25	0	0	0	0;
	17	100	0	148.1	-114	1	100	1	227	56.75	0	0	0	0;
	17	100	0	148.1	-114	1	100	1	227	56.75	0	0	0	0;
	17	100	0	55.6	-52.5	1	100	1	106	26.5	0	0	0	0;
	158	100	0	115.9	-54.9	1	100	1	140	35	0	0	0	0;
	21	100	0	208.5	-165.2	1	100	1	482	120.5	0	0	0	0;
	21	100	0	206.3	-159.5	1	100	1	482	120.5	0	0	0	0;
	65	100	0	96.5	-109.5	1	100	1	245	61.25	0	0	0	0;
	65	100	0	110.9	-106.2	1	100	1	245	61.25	0	0	0	0;
	65	100	0	103.3	-113.7	1	100	1	245	61.25	0	0	0	0;
	46	100	0	66.9	-69.7	1	100	1	0	0	0	0	0	0;
	46	100	0	68.7	-68.1	1	100	1	0	0	0	0	0	0;
	46	100	0	79.6	-73.6	1	100	1	0	0	0	0	0	0;
	46	100	0	67	-69.5	1	100	1	0	0	0	0	0	0;
	46	100	0	67	-69.5	1	100	1	0	0	0	0	0	0;
	46	100	0	79.6	-73.6	1	100	1	0	0	0	0	0	0;
	46	100	0	57.3	-69	1	100	1	144.6	36.15	0	0	0	0;
	46	100	0	57.3	-69	1	100	1	144.6	36.15	0	0	0	0;
	46	100	0	57.3	-69	1	100	1	144.6	36.15	0	0	0	0;
	46	100	0	104.7	-106.7	1	100	1	231.2	57.8	0	0	0	0;
	64	100	0	196	-131.9	1	100	1	485	121.25	0	0	0	0;
	64	100	0	196.2	-131.8	1	100	1	485	121.25	0	0	0	0;
	64	100	0	200.7	-128.4	1	100	1	485	121.25	0	0	0	0;
	64	100	0	195.3	-132.5	1	100	1	485	121.25	0	0	0	0;
	64	100	0	5.2	-5.2	1	100	1	13	3.25	0	0	0	0;
	64	100	0	5.2	-5.2	1	100	1	13	3.25	0	0	0	0;
	47	100	0	90.1	-109.5	1	100	1	210	52.5	0	0	0	0;
	47	100	0	90.3	-109.2	1	100	1	210	52.5	0	0	0	0;
	47	100	0	115.7	-117.4	1	100	1	245	61.25	0	0	0	0;
	165	100	0	264	-261.2	1	100	1	685	171.25	0	0	0	0;
	165	100	0	264.5	-260.8	1	100	1	685	171.25	0	0	0	0;
	165	100	0	0	0	1	100	1	0	0	0	0	0	0;
	165	100	0	14	-14	1	100	1	35	8.75	0	0	0	0;
	165	100	0	14	-14	1	100	1	35	8.75	0	0	0	0;
	165	100	0	14	-14	1	100	1	35	8.75	0	0	0	0;
	16	100	0	133.8	-138.2	1	100	1	324	81	0	0	0	0;
	16	100	0	133.8	-138.2	1	100	1	324	81	0	0	0	0;
	16	100	0	114.9	-134.2	1	100	1	288	72	0	0	0	0;
	86	100	0	109.1	-120.1	1	100	1	226.7	56.675	0	0	0	0;
	86	100	0	110.9	-118.9	1	100	1	226.7	56.675	0	0	0	0;
	86	100	0	121.3	-112.6	1	100	1	226.7	56.675	0	0	0	0;
	49	100	0	170	-148.1	1	100	1	500	125	0	0	0	0;
	49	100	0	193.2	-129.3	1	100	1	500	125	0	0	0	0;
	49	100	0	193.1	-129.3	1	100	1	500	125	0	0	0	0;
	49	100	0	177.6	-79.5	1	100	1	500	125	0	0	0	0;
	49	100	0	0	-0	1	100	1	0	0	0	0	0	0;
	49	100	0	4	-4	1	100	1	10	2.5	0	0	0	0;
	49	100	0	0	-0	1	100	1	0	0	0	0	0	0;
	49	100	0	4.4	-4.4	1	100	1	11	2.75	0	0	0	0;
	144	100	0	176.2	-156.8	1	100	1	270	67.5	0	0	0	0;
	144	100	0	176.2	-156.8	1	100	1	270	67.5	0	0	0	0;
	144	100	0	179	-151	1	100	1	270	67.5	0	0	0	0;
	108	100	0	190.1	-149.6	1	100	1	498	124.5	0	0	0	0;
	108	100	0	191.3	-148.6	1	100	1	498	124.5	0	0	0	0;
	108	100	0	8.8	-8.8	1	100	1	22	5.5	0	0	0	0;
	108	100	0	0	-0	1	100	1	0	0	0	0	0	0;
	166	100	0	66.1	-68.2	1	100	1	178	44.5	0	0	0	0;
	166	100	0	68.3	-66.4	1	100	1	178	44.5	0	0	0	0;
	166	100	0	66	-68.3	1	100	1	178	44.5	0	0	0	0;
	166	100	0	78.6	-121.1	1	100	1	295	73.75	0	0	0	0;
	58	100	0	95.5	-130.7	1	100	1	273.3	68.325	0	0	0	0;
	58	100	0	95.5	-130.7	1	100	1	273.3	68.325	0	0	0	0;
	58	100	0	136.8	-210.1	1	100	1	414	103.5	0	0	0	0;
	58	100	0	110.2	-122	1	100	1	273.3	68.325	0	0	0	0;
	83	100	0	287.3	-289.2	1	100	1	600	150	0	0	0	0;
	83	100	0	286.2	-281.8	1	100	1	600	150	0	0	0	0;
	87	100	0	76.9	-76	1	100	1	169	42.25	0	0	0	0;
	87	100	0	70.8	-80.4	1	100	1	169	42.25	0	0	0	0;
	87	100	0	69.2	-81.3	1	100	1	169	42.25	0	0	0	0;
	87	100	0	119.5	-126.8	1	100	1	262	65.5	0	0	0	0;
	87	100	0	68.1	-79.2	1	100	1	174	43.5	0	0	0	0;
	87	100	0	68	-79.3	1	100	1	174	43.5	0	0	0	0;
	87	100	0	80.7	-77.8	1	100	1	168	42	0	0	0	0;
	18	100	0	141.4	-186.5	1	100	1	252	63	0	0	0	0;
	18	100	0	146.5	-185	1	100	1	252	63	0	0	0	0;
	18	100	0	231.7	-242.3	1	100	1	366	91.5	0	0	0	0;
	54	100	0	303.4	-215.4	1	100	1	425	106.25	0	0	0	0;
	54	100	0	303.4	-215.4	1	100	1	425	106.25	0	0	0	0;
	54	100	0	303.4	-215.4	1	100	1	425	106.25	0	0	0	0;
	54	100	0	303.4	-215.4	1	100	1	425	106.25	0	0	0	0;
	79	100	0	202	-176.1	1	100	1	483	120.75	0	0	0	0;
	79	100	0	166.1	-178.8	1	100	1	503	125.75	0	0	0	0;
	79	100	0	165.8	-179.1	1	100	1	503	125.75	0	0	0	0;
	79	100	0	201.4	-176.6	1	100	1	483	120.75	0	0	0	0;
	79	100	0	3	-3	1	100	1	7.5	1.875	0	0	0	0;
	79	100	0	3	-3	1	100	1	7.5	1.875	0	0	0	0;
	79	100	0	184.1	-226	1	100	1	435	108.75	0	0	0	0;
	93	100	0	137.3	-117.2	1	100	1	245	61.25	0	0	0	0;
	93	100	0	133.8	-115.9	1	100	1	245	61.25	0	0	0	0;
	93	100	0	132.8	-114.8	1	100	1	245	61.25	0	0	0	0;
	93	100	0	135.6	-110.7	1	100	1	245	61.25	0	0	0	0;
	289	100	0	117	-108	1	100	1	276	69	0	0	0	0;
	289	100	0	117	-108	1	100	1	276	69	0	0	0	0;
	289	100	0	-56	-56	1	100	1	276	69	0	0	0	0;
	289	100	0	-56	-56	1	100	1	276	69	0	0	0	0;
	247	100	0	37.1	-59.3	1	100	1	110	27.5	0	0	0	0;
	247	100	0	37.2	-59.2	1	100	1	110	27.5	0	0	0	0;
	247	100	0	37.4	-59	1	100	1	110	27.5	0	0	0	0;
	247	100	0	37.4	-59	1	100	1	110	27.5	0	0	0	0;
	248	100	0	118	-230	1	100	1	576	144	0	0	0	0;
	248	100	0	120	-228	1	100	1	576	144	0	0	0	0;
	248	100	0	232.9	-209.5	1	100	1	576	144	0	0	0	0;
	248	100	0	232.2	-210	1	100	1	576	144	0	0	0	0;
	335	100	0	20.3	-103.6	1	100	1	150	37.5	0	0	0	0;
	335	100	0	20.7	-103.1	1	100	1	150	37.5	0	0	0	0;
	266	100	0	28.9	-28.9	1	100	1	88	22	0	0	0	0;
	293	100	0	291.8	-134.6	1	100	1	660	165	0	0	0	0;
	293	100	0	291.2	-135	1	100	1	660	165	0	0	0	0;
	293	100	0	118	-125.1	1	100	1	266	66.5	0	0	0	0;
	293	100	0	118	-125.1	1	100	1	266	66.5	0	0	0	0;
	293	100	0	118	-125.1	1	100	1	266	66.5	0	0	0	0;
	273	100	0	193.9	-163	1	100	1	547	136.75	0	0	0	0;
	273	100	0	193.2	-163.6	1	100	1	547	136.75	0	0	0	0;
	273	100	0	194.1	-162.8	1	100	1	547	136.75	0	0	0	0;
	273	100	0	6.8	-6.8	1	100	1	17	4.25	0	0	0	0;
	273	100	0	6.8	-6.8	1	100	1	17	4.25	0	0	0	0;
	273	100	0	6.8	-6.8	1	100	1	17	4.25	0	0	0	0;
	306	100	0	173.7	-295	1	100	1	520	130	0	0	0	0;
	306	100	0	11.3	-14.6	1	100	1	32.3	8.075	0	0	0	0;
	320	100	0	195.9	-155.3	1	100	1	490	122.5	0	0	0	0;
	320	100	0	196.6	-154.8	1	100	1	490	122.5	0	0	0	0;
	320	100	0	197.3	-154.2	1	100	1	490	122.5	0	0	0	0;
...
];

%%%% generator cost data
%%	1	startup	shutdown	n	x1	y1	...	xn	yn
%%	2	startup	shutdown	n	c(n-1)	...	c0
mpc.gencost = [
	1	0	0	3	0.01	0.1	10;
	1	0	0	3	0.01	0.1	10;
	1	0	0	3	0.01	0.1	10;
	1	0	0	3	0.01	0.1	10;
	1	0	0	3	0.01	0.1	10;
	1	0	0	3	0.01	0.1	10;
	1	0	0	3	0.01	0.1	10;
	1	0	0	3	0.01	0.1	10;
	1	0	0	3	0.01	0.1	10;
	1	0	0	3	0.01	0.1	10;
	1	0	0	3	0.01	0.1	10;
	1	0	0	3	0.01	0.1	10;
	1	0	0	3	0.01	0.1	10;
	1	0	0	3	0.01	0.1	10;
	1	0	0	3	0.01	0.1	10;
	1	0	0	3	0.01	0.1	10;
	1	0	0	3	0.01	0.1	10;
	1	0	0	3	0.01	0.1	10;
	1	0	0	3	0.01	0.1	10;
	1	0	0	3	0.01	0.1	10;
	1	0	0	3	0.01	0.1	10;
	1	0	0	3	0.01	0.1	10;
	1	0	0	3	0.01	0.1	10;
	1	0	0	3	0.01	0.1	10;
	1	0	0	3	0.01	0.1	10;
	1	0	0	3	0.01	0.1	10;
	1	0	0	3	0.01	0.1	10;
	1	0	0	3	0.01	0.1	10;
	1	0	0	3	0.01	0.1	10;
	1	0	0	3	0.01	0.1	10;
	1	0	0	3	0.01	0.1	10;
	1	0	0	3	0.01	0.1	10;
	1	0	0	3	0.01	0.1	10;
	1	0	0	3	0.01	0.1	10;
	1	0	0	3	0.01	0.1	10;
	1	0	0	3	0.01	0.1	10;
	1	0	0	3	0.01	0.1	10;
	1	0	0	3	0.01	0.1	10;
	1	0	0	3	0.01	0.1	10;
	1	0	0	3	0.01	0.1	10;
	1	0	0	3	0.01	0.1	10;
	1	0	0	3	0.01	0.1	10;
	1	0	0	3	0.01	0.1	10;
	1	0	0	3	0.01	0.1	10;
	1	0	0	3	0.01	0.1	10;
	1	0	0	3	0.01	0.1	10;
	1	0	0	3	0.01	0.1	10;
	1	0	0	3	0.01	0.1	10;
	1	0	0	3	0.01	0.1	10;
	1	0	0	3	0.01	0.1	10;
	1	0	0	3	0.01	0.1	10;
	1	0	0	3	0.01	0.1	10;
	1	0	0	3	0.01	0.1	10;
	1	0	0	3	0.01	0.1	10;
	1	0	0	3	0.01	0.1	10;
	1	0	0	3	0.01	0.1	10;
	1	0	0	3	0.01	0.1	10;
	1	0	0	3	0.01	0.1	10;
	1	0	0	3	0.01	0.1	10;
	1	0	0	3	0.01	0.1	10;
	1	0	0	3	0.01	0.1	10;
	1	0	0	3	0.01	0.1	10;
	1	0	0	3	0.01	0.1	10;
	1	0	0	3	0.01	0.1	10;
	1	0	0	3	0.01	0.1	10;
	1	0	0	3	0.01	0.1	10;
	1	0	0	3	0.01	0.1	10;
	1	0	0	3	0.01	0.1	10;
	1	0	0	3	0.01	0.1	10;
	1	0	0	3	0.01	0.1	10;
	1	0	0	3	0.01	0.1	10;
	1	0	0	3	0.01	0.1	10;
	1	0	0	3	0.01	0.1	10;
	1	0	0	3	0.01	0.1	10;
	1	0	0	3	0.01	0.1	10;
	1	0	0	3	0.01	0.1	10;
	1	0	0	3	0.01	0.1	10;
	1	0	0	3	0.01	0.1	10;
	1	0	0	3	0.01	0.1	10;
	1	0	0	3	0.01	0.1	10;
	1	0	0	3	0.01	0.1	10;
	1	0	0	3	0.01	0.1	10;
	1	0	0	3	0.01	0.1	10;
	1	0	0	3	0.01	0.1	10;
	1	0	0	3	0.01	0.1	10;
	1	0	0	3	0.01	0.1	10;
	1	0	0	3	0.01	0.1	10;
	1	0	0	3	0.01	0.1	10;
	1	0	0	3	0.01	0.1	10;
	1	0	0	3	0.01	0.1	10;
	1	0	0	3	0.01	0.1	10;
	1	0	0	3	0.01	0.1	10;
	1	0	0	3	0.01	0.1	10;
	1	0	0	3	0.01	0.1	10;
	1	0	0	3	0.01	0.1	10;
	1	0	0	3	0.01	0.1	10;
	1	0	0	3	0.01	0.1	10;
	1	0	0	3	0.01	0.1	10;
	1	0	0	3	0.01	0.1	10;
	1	0	0	3	0.01	0.1	10;
	1	0	0	3	0.01	0.1	10;
	1	0	0	3	0.01	0.1	10;
	1	0	0	3	0.01	0.1	10;
	1	0	0	3	0.01	0.1	10;
	1	0	0	3	0.01	0.1	10;
	1	0	0	3	0.01	0.1	10;
	1	0	0	3	0.01	0.1	10;
	1	0	0	3	0.01	0.1	10;
	1	0	0	3	0.01	0.1	10;
	1	0	0	3	0.01	0.1	10;
	1	0	0	3	0.01	0.1	10;
	1	0	0	3	0.01	0.1	10;
	1	0	0	3	0.01	0.1	10;
	1	0	0	3	0.01	0.1	10;
	1	0	0	3	0.01	0.1	10;
	1	0	0	3	0.01	0.1	10;
	1	0	0	3	0.01	0.1	10;
	1	0	0	3	0.01	0.1	10;
	1	0	0	3	0.01	0.1	10;
	1	0	0	3	0.01	0.1	10;
	1	0	0	3	0.01	0.1	10;
	1	0	0	3	0.01	0.1	10;
	1	0	0	3	0.01	0.1	10;
	1	0	0	3	0.01	0.1	10;
	1	0	0	3	0.01	0.1	10;
	1	0	0	3	0.01	0.1	10;
	1	0	0	3	0.01	0.1	10;
	1	0	0	3	0.01	0.1	10;
	1	0	0	3	0.01	0.1	10;
	1	0	0	3	0.01	0.1	10;
	1	0	0	3	0.01	0.1	10;
	1	0	0	3	0.01	0.1	10;
	1	0	0	3	0.01	0.1	10;
	1	0	0	3	0.01	0.1	10;
	1	0	0	3	0.01	0.1	10;
	1	0	0	3	0.01	0.1	10;
	1	0	0	3	0.01	0.1	10;
	1	0	0	3	0.01	0.1	10;
	1	0	0	3	0.01	0.1	10;
	1	0	0	3	0.01	0.1	10;
	1	0	0	3	0.01	0.1	10;
	1	0	0	3	0.01	0.1	10;
	1	0	0	3	0.01	0.1	10;
	1	0	0	3	0.01	0.1	10;
	1	0	0	3	0.01	0.1	10;
	1	0	0	3	0.01	0.1	10;
	1	0	0	3	0.01	0.1	10;
	1	0	0	3	0.01	0.1	10;
	1	0	0	3	0.01	0.1	10;
	1	0	0	3	0.01	0.1	10;
	1	0	0	3	0.01	0.1	10;
	1	0	0	3	0.01	0.1	10;
	1	0	0	3	0.01	0.1	10;
	1	0	0	3	0.01	0.1	10;
	1	0	0	3	0.01	0.1	10;
	1	0	0	3	0.01	0.1	10;
	1	0	0	3	0.01	0.1	10;
	1	0	0	3	0.01	0.1	10;
	1	0	0	3	0.01	0.1	10;
	1	0	0	3	0.01	0.1	10;
	1	0	0	3	0.01	0.1	10;
	1	0	0	3	0.01	0.1	10;
	1	0	0	3	0.01	0.1	10;
	1	0	0	3	0.01	0.1	10;
	1	0	0	3	0.01	0.1	10;
	1	0	0	3	0.01	0.1	10;
	1	0	0	3	0.01	0.1	10;
	1	0	0	3	0.01	0.1	10;
	1	0	0	3	0.01	0.1	10;
	1	0	0	3	0.01	0.1	10;
	1	0	0	3	0.01	0.1	10;
	1	0	0	3	0.01	0.1	10;
	1	0	0	3	0.01	0.1	10;
	1	0	0	3	0.01	0.1	10;
	1	0	0	3	0.01	0.1	10;
	1	0	0	3	0.01	0.1	10;
	1	0	0	3	0.01	0.1	10;
	1	0	0	3	0.01	0.1	10;
	1	0	0	3	0.01	0.1	10;
	1	0	0	3	0.01	0.1	10;
	1	0	0	3	0.01	0.1	10;
	1	0	0	3	0.01	0.1	10;
	1	0	0	3	0.01	0.1	10;
	1	0	0	3	0.01	0.1	10;
	1	0	0	3	0.01	0.1	10;
	1	0	0	3	0.01	0.1	10;
	1	0	0	3	0.01	0.1	10;
	1	0	0	3	0.01	0.1	10;
	1	0	0	3	0.01	0.1	10;
	1	0	0	3	0.01	0.1	10;
	1	0	0	3	0.01	0.1	10;
	1	0	0	3	0.01	0.1	10;
	1	0	0	3	0.01	0.1	10;
	1	0	0	3	0.01	0.1	10;
	1	0	0	3	0.01	0.1	10;
	1	0	0	3	0.01	0.1	10;
	1	0	0	3	0.01	0.1	10;
	1	0	0	3	0.01	0.1	10;
	1	0	0	3	0.01	0.1	10;
	1	0	0	3	0.01	0.1	10;
...
];
